--- QCD ALICE METRICS ---
DATASET_VOLUME: 500,000 PARTICLE TRACKS
I/O_GENERATION_LATENCY: 0.3681 SECONDS
THERMODYNAMIC_STATE: 5.5 TRILLION KELVIN (UNBOUNDED)

